Version 4
SHEET 1 2328 860
WIRE 608 -464 496 -464
WIRE 704 -464 608 -464
WIRE 976 -464 704 -464
WIRE 1168 -464 976 -464
WIRE 1328 -464 1168 -464
WIRE 496 -416 496 -464
WIRE 704 -416 704 -464
WIRE 704 -368 496 -368
WIRE 976 -368 976 -464
WIRE 976 -368 704 -368
WIRE 656 -336 448 -336
WIRE 1168 -336 1168 -464
WIRE 1248 -336 1168 -336
WIRE 1168 -288 1168 -336
WIRE 448 -272 448 -336
WIRE 496 -272 496 -320
WIRE 496 -272 448 -272
WIRE 1248 -240 1248 -336
WIRE 1248 -240 1168 -240
WIRE 704 -208 704 -320
WIRE 704 -208 160 -208
WIRE 864 -208 704 -208
WIRE 1008 -208 864 -208
WIRE 1120 -208 1008 -208
WIRE 1008 -144 1008 -208
WIRE 1328 -144 1328 -464
WIRE 496 -112 496 -272
WIRE 496 -112 336 -112
WIRE 688 -112 496 -112
WIRE 1440 -96 1328 -96
WIRE 1168 -64 1168 -192
WIRE 1280 -64 1168 -64
WIRE 1888 -48 1888 -96
WIRE 2048 -48 2048 -96
WIRE -112 -16 -112 -128
WIRE 1008 0 1008 -80
WIRE 1504 0 1008 0
WIRE 160 16 160 -208
WIRE 336 16 336 -112
WIRE 688 16 688 -112
WIRE 864 16 864 -208
WIRE 16 32 -112 32
WIRE -1136 64 -1136 0
WIRE -816 64 -816 16
WIRE -160 64 -256 64
WIRE 336 64 160 64
WIRE 688 64 336 64
WIRE 864 64 688 64
WIRE 1104 64 864 64
WIRE 1888 80 1888 32
WIRE 112 96 64 96
WIRE 640 96 592 96
WIRE 2048 112 2048 32
WIRE 160 144 160 112
WIRE 256 144 160 144
WIRE 336 144 336 112
WIRE 336 144 256 144
WIRE 688 176 688 112
WIRE 784 176 688 176
WIRE 864 176 864 112
WIRE 864 176 784 176
WIRE -1136 192 -1136 144
WIRE -816 208 -816 144
WIRE -112 256 -112 80
WIRE -112 256 -208 256
WIRE 256 256 256 144
WIRE 784 256 784 176
WIRE -208 288 -208 256
WIRE 192 288 -208 288
WIRE 688 288 192 288
WIRE -64 304 -112 304
WIRE 336 304 256 304
WIRE 880 304 784 304
WIRE -208 336 -208 288
WIRE -160 336 -208 336
WIRE 192 336 192 288
WIRE 208 336 192 336
WIRE 688 336 688 288
WIRE 736 336 688 336
WIRE 1328 384 1328 -48
WIRE 1376 384 1328 384
WIRE -112 400 -112 352
WIRE -112 400 -176 400
WIRE -64 400 -64 304
WIRE -16 400 -64 400
WIRE 336 400 336 304
WIRE 368 400 336 400
WIRE 880 400 880 304
WIRE 912 400 880 400
WIRE 1168 416 1168 -64
WIRE 1184 416 1168 416
WIRE -112 432 -112 400
WIRE 256 448 256 352
WIRE 784 448 784 352
WIRE 1184 448 1184 416
WIRE 1376 448 1376 384
WIRE -64 480 -64 400
WIRE -64 480 -112 480
WIRE -176 496 -176 400
WIRE 192 496 -176 496
WIRE 336 496 336 400
WIRE 336 496 256 496
WIRE 880 496 880 400
WIRE 880 496 784 496
WIRE 1376 496 1184 496
WIRE 1472 496 1376 496
WIRE -176 512 -176 496
WIRE -160 512 -176 512
WIRE 192 512 192 496
WIRE 704 512 192 512
WIRE 192 528 192 512
WIRE 208 528 192 528
WIRE 704 528 704 512
WIRE 736 528 704 528
WIRE 1136 528 736 528
WIRE 1328 528 1136 528
WIRE -112 576 -112 528
WIRE 256 576 256 544
WIRE 256 576 -112 576
WIRE 784 576 784 544
WIRE 784 576 256 576
WIRE 1184 576 1184 544
WIRE 1184 576 784 576
WIRE 1376 576 1376 544
WIRE 1376 576 1184 576
WIRE 1472 576 1472 496
WIRE 1472 576 1376 576
WIRE 256 608 256 576
WIRE 592 736 592 96
WIRE 816 736 816 96
WIRE 64 752 64 96
WIRE 288 752 288 96
FLAG -816 16 vdd
FLAG -816 208 0
FLAG -16 400 0
FLAG 368 400 0
FLAG 912 400 0
FLAG 256 608 0
FLAG -256 64 nbias
FLAG -112 -128 vdd
FLAG 64 752 vpp
FLAG 288 752 vpn
FLAG 608 -464 vdd
FLAG 1104 64 0
FLAG 16 32 0
FLAG 1440 -96 0
FLAG -1136 0 nbias
FLAG -1136 192 0
FLAG 1888 -96 vpp
FLAG 1888 80 0
FLAG 2048 -96 vpn
FLAG 2048 112 0
FLAG 592 736 0
FLAG 1504 0 vo
FLAG 816 736 0
SYMBOL nmos4 -160 256 R0
SYMATTR InstName M1
SYMATTR Value test
SYMBOL pmos4 448 -416 R0
SYMATTR InstName M2
SYMATTR Value test1
SYMBOL nmos4 -160 432 R0
SYMATTR InstName M3
SYMATTR Value test
SYMBOL nmos4 208 256 R0
SYMATTR InstName M4
SYMATTR Value test
SYMBOL nmos4 208 448 R0
SYMATTR InstName M5
SYMATTR Value test
SYMBOL nmos4 736 256 R0
SYMATTR InstName M6
SYMATTR Value test
SYMBOL nmos4 736 448 R0
SYMATTR InstName M7
SYMATTR Value test
SYMBOL nmos4 -160 -16 R0
SYMATTR InstName M8
SYMATTR Value test
SYMBOL nmos4 1136 448 R0
SYMATTR InstName M9
SYMATTR Value test
SYMBOL voltage -816 48 R0
WINDOW 123 0 0 Left 0
WINDOW 39 0 0 Left 0
SYMATTR InstName V1
SYMATTR Value 1.8
SYMBOL nmos4 112 16 R0
SYMATTR InstName M10
SYMATTR Value test
SYMBOL nmos4 288 16 R0
SYMATTR InstName M11
SYMATTR Value test
SYMBOL nmos4 640 16 R0
SYMATTR InstName M12
SYMATTR Value test
SYMBOL nmos4 816 16 R0
SYMATTR InstName M13
SYMATTR Value test
SYMBOL pmos4 656 -416 R0
SYMATTR InstName M14
SYMATTR Value test1
SYMBOL nmos4 1328 448 R0
SYMATTR InstName M15
SYMATTR Value test
SYMBOL pmos4 1120 -288 R0
SYMATTR InstName M16
SYMATTR Value test1
SYMBOL nmos4 1280 -144 R0
SYMATTR InstName M17
SYMATTR Value test
SYMBOL cap 992 -144 R0
SYMATTR InstName C1
SYMATTR Value 10f
SYMBOL voltage -1136 48 R0
WINDOW 123 0 0 Left 0
WINDOW 39 0 0 Left 0
SYMATTR InstName V2
SYMATTR Value 0.445
SYMBOL voltage 1888 -64 R0
WINDOW 123 0 0 Left 0
WINDOW 39 0 0 Left 0
SYMATTR InstName V3
SYMATTR Value 0.6
SYMBOL voltage 2048 -64 R0
WINDOW 123 0 0 Left 0
WINDOW 39 0 0 Left 0
SYMATTR InstName V4
SYMATTR Value 0.3
TEXT -112 -840 Left 2 !.model test NMOS  (level=12, kp=0.00030207, Vto=0.56 Gamma=0.55708, Phi=0.5, Is=4.27e-24)\n.model test1 PMOS(KP=0.00007986, Vto=-0.9, Gamma=0.656924, Phi=0.5, Is=9.5876e-24, level=12 )
TEXT -1170 844 Left 2 !.tran 10u
