Version 4
SHEET 1 880 1204
WIRE 0 512 -48 512
WIRE -48 640 -48 512
WIRE 256 656 256 576
WIRE 624 656 624 592
WIRE 624 784 624 736
WIRE 256 800 256 720
WIRE -48 832 -48 704
WIRE 0 832 -48 832
WIRE -304 960 -304 944
WIRE -560 1040 -560 912
WIRE -304 1040 -304 960
WIRE -560 1152 -560 1120
WIRE -304 1152 -304 1120
WIRE -304 1152 -560 1152
WIRE -560 1184 -560 1152
FLAG -560 1184 0
FLAG 624 592 vdd
FLAG 624 784 0
FLAG -560 912 first
FLAG -304 960 second
FLAG 0 512 vcapu
FLAG 0 832 vcapl
FLAG 256 576 voutu
FLAG 256 800 voutl
SYMBOL voltage -560 1024 R0
WINDOW 123 0 0 Left 0
WINDOW 39 0 0 Left 0
SYMATTR InstName V1
SYMATTR Value 0.8
SYMBOL voltage 624 640 R0
WINDOW 123 0 0 Left 0
WINDOW 39 0 0 Left 0
SYMATTR InstName V3
SYMATTR Value 1.8
SYMBOL voltage -304 1024 R0
WINDOW 123 0 0 Left 0
WINDOW 39 0 0 Left 0
SYMATTR InstName V2
SYMATTR Value 0.6
SYMBOL cap -64 640 R0
SYMATTR InstName C1
SYMATTR Value 1p
SYMBOL cap 240 656 R0
SYMATTR InstName C2
SYMATTR Value 1p
TEXT -8 40 Left 2 !.include C:\\Users\\ber20\\hilas_shared\\4430_Projects\\project4\\models.sp
TEXT 0 96 Left 2 !X1 first clk_sample vcapu gnd sky130_fd_pr__nfet_01v8\nX2 first clk_samplen vcapu vdd sky130_fd_pr__pfet_01v8\nX3 second clk_sample vcapl gnd sky130_fd_pr__nfet_01v8\nX4 second clk_samplen vcapl vdd sky130_fd_pr__pfet_01v8\nX5 vcapu clk_samplen voutu gnd sky130_fd_pr__nfet_01v8\nX6 vcapu clk_sample voutu vdd sky130_fd_pr__pfet_01v8\nX7 vcapl clk_samplen voutl gnd sky130_fd_pr__nfet_01v8\nX8 vcapl clk_sample voutl vdd sky130_fd_pr__pfet_01v8\nV5 clk_sample gnd PULSE(0 3 10u 0.1n 0.1n 10u 30u)\nV6 clk_samplen gnd PULSE(3 0 10u 0.1n 0.1n 10u 30u)
TEXT 526 464 Left 2 !.tran 10u
