Version 4
SHEET 1 9184 1848
WIRE 6640 -64 6496 -64
WIRE 6896 -64 6640 -64
WIRE 7008 -64 6896 -64
WIRE 7280 -64 7008 -64
WIRE 7392 -64 7280 -64
WIRE 7008 0 7008 -64
WIRE 7280 0 7280 -64
WIRE 6896 48 6896 -64
WIRE 7008 48 6896 48
WIRE 7392 48 7392 -64
WIRE 7392 48 7280 48
WIRE 6496 64 6496 -64
WIRE 6496 64 5408 64
WIRE 7088 80 7056 80
WIRE 7232 80 7088 80
WIRE 6496 128 6496 64
WIRE 6560 128 6496 128
WIRE 7488 128 7152 128
WIRE 5408 160 5408 64
WIRE 5408 160 4992 160
WIRE 6496 176 6496 128
WIRE 7008 192 7008 96
WIRE 7280 192 7280 96
WIRE 6560 224 6560 128
WIRE 6560 224 6496 224
WIRE 6896 240 6896 48
WIRE 7008 240 6896 240
WIRE 7392 240 7392 48
WIRE 7392 240 7280 240
WIRE 6448 256 6448 192
WIRE 6448 256 6208 256
WIRE 7152 272 7152 128
WIRE 7152 272 7056 272
WIRE 7232 272 7152 272
WIRE 6496 320 6496 272
WIRE 6496 320 6336 320
WIRE 6656 320 6496 320
WIRE 7008 368 7008 288
WIRE 7088 368 7088 80
WIRE 7088 368 7008 368
WIRE 6768 400 6704 400
WIRE 7280 400 7280 288
WIRE 7360 400 7280 400
WIRE 7392 400 7360 400
WIRE 6336 416 6336 320
WIRE 6656 416 6656 320
WIRE 7008 432 7008 368
WIRE 7280 432 7280 400
WIRE 5952 448 5840 448
WIRE 6096 448 5952 448
WIRE 6256 448 6096 448
WIRE 6768 448 6768 400
WIRE 6560 464 6560 224
WIRE 6560 464 6336 464
WIRE 6656 464 6560 464
WIRE 5568 480 5392 480
WIRE 5840 480 5840 448
WIRE 5840 480 5568 480
WIRE 6704 496 6704 400
WIRE 6256 512 6256 448
WIRE 6288 512 6288 496
WIRE 6288 512 6256 512
WIRE 7152 512 7056 512
WIRE 7232 512 7152 512
WIRE 6656 576 6656 512
WIRE 7008 576 7008 528
WIRE 7008 576 6656 576
WIRE 6336 624 6336 512
WIRE 7280 624 7280 528
WIRE 7280 624 6336 624
WIRE 5184 640 5136 640
WIRE 5328 640 5280 640
WIRE 6336 656 6336 624
WIRE 6656 656 6656 576
WIRE 5840 688 5840 480
WIRE 5952 688 5952 448
WIRE 5568 704 5568 480
WIRE 7152 704 7152 512
WIRE 5136 736 5136 640
WIRE 5136 736 5056 736
WIRE 5328 736 5328 640
WIRE 5392 736 5392 480
WIRE 5392 736 5328 736
WIRE 6496 736 6384 736
WIRE 6608 736 6496 736
WIRE 6496 784 6496 736
WIRE 6496 784 6176 784
WIRE 5136 832 5136 736
WIRE 5184 832 5136 832
WIRE 5328 832 5328 736
WIRE 5328 832 5280 832
WIRE 5840 832 5840 752
WIRE 5952 832 5952 752
WIRE 6336 832 6336 752
WIRE 6496 832 6336 832
WIRE 6656 832 6656 752
WIRE 6656 832 6496 832
WIRE 6176 848 6176 784
WIRE 5568 912 5568 768
WIRE 6496 928 6496 832
WIRE 7072 992 7024 992
WIRE 7216 992 7168 992
WIRE 7024 1088 7024 992
WIRE 7024 1088 6944 1088
WIRE 7216 1088 7216 992
WIRE 7328 1088 7216 1088
WIRE 7024 1184 7024 1088
WIRE 7072 1184 7024 1184
WIRE 7216 1184 7216 1088
WIRE 7216 1184 7168 1184
FLAG 4992 240 0
FLAG 6496 928 0
FLAG 6336 704 0
FLAG 6656 704 0
FLAG 7008 480 0
FLAG 7280 480 0
FLAG 6640 -64 vdd
FLAG 7120 1184 0
FLAG 7120 992 +1V8
FLAG 7360 400 vo
FLAG 7152 944 clkan
FLAG 7088 1232 clka
FLAG 6944 1088 vx
FLAG 5840 832 vh
FLAG 7328 1088 vh
FLAG 6768 448 0
FLAG 5568 912 vo
FLAG 5232 832 0
FLAG 5232 640 +1V8
FLAG 5200 880 clka
FLAG 5264 592 clkan
FLAG 5056 736 vo
FLAG 6208 256 pbias
FLAG 6176 848 nbias
FLAG 7488 128 vcasp
FLAG 7152 704 vcasn
FLAG 6096 448 vx
FLAG 5952 832 vdac
SYMBOL voltage 4992 144 R0
WINDOW 123 0 0 Left 0
WINDOW 39 0 0 Left 0
SYMATTR InstName V10
SYMATTR Value 1.8
SYMBOL pmos4 6448 272 M180
SYMATTR InstName M21
SYMATTR Value test1
SYMATTR Value2 l=1200n w=800000n
SYMBOL pmos4 6288 416 R0
SYMATTR InstName M22
SYMATTR Value test1
SYMATTR Value2 l=1600n w=146000n
SYMBOL nmos4 6608 656 R0
SYMATTR InstName M24
SYMATTR Value test
SYMATTR Value2 l=1600n w=50000n
SYMBOL nmos4 6384 656 M0
SYMATTR InstName M25
SYMATTR Value test
SYMATTR Value2 l=1600n w=50000n
SYMBOL nmos4 7056 432 M0
SYMATTR InstName M26
SYMATTR Value test
SYMATTR Value2 l=1600n w=300000n
SYMBOL nmos4 7232 432 R0
SYMATTR InstName M27
SYMATTR Value test
SYMATTR Value2 l=1600n w=300000n
SYMBOL pmos4 7056 192 M0
SYMATTR InstName M28
SYMATTR Value test1
SYMATTR Value2 l=1600n w=300000n
SYMBOL pmos4 7056 0 M0
SYMATTR InstName M31
SYMATTR Value test1
SYMATTR Value2 l=1600n w=300000n
SYMBOL pmos4 7232 192 R0
SYMATTR InstName M32
SYMATTR Value test1
SYMATTR Value2 l=1600n w=300000n
SYMBOL pmos4 7232 0 R0
SYMATTR InstName M33
SYMATTR Value test1
SYMATTR Value2 l=1600n w=300000n
SYMBOL pmos4 6704 416 M0
SYMATTR InstName M23
SYMATTR Value test1
SYMATTR Value2 l=1600n w=146000n
SYMBOL nmos4 7168 1232 M270
SYMATTR InstName M12
SYMATTR Value test
SYMATTR Value2 l=400n w=800n
SYMBOL pmos4 7072 944 M90
SYMATTR InstName M13
SYMATTR Value test1
SYMATTR Value2 l=400n w=800n
SYMBOL cap 5856 752 R180
WINDOW 0 24 56 Left 2
WINDOW 3 24 8 Left 2
SYMATTR InstName C1
SYMATTR Value 200f
SYMBOL cap 5552 704 R0
SYMATTR InstName C3
SYMATTR Value 100f
SYMBOL nmos4 5280 880 M270
SYMATTR InstName M1
SYMATTR Value test
SYMATTR Value2 l=400n w=800n
SYMBOL pmos4 5184 592 M90
SYMATTR InstName M2
SYMATTR Value test1
SYMATTR Value2 l=400n w=800n
SYMBOL cap 5936 688 R0
SYMATTR InstName C2
SYMATTR Value 200f
TEXT 4200 -32 Left 2 !.model test NMOS  (level=12, kp=0.00030207, Vto=0.56 Gamma=0.55708, Phi=0.5, Is=4.27e-24)
TEXT 4168 16 Left 2 !.model test1 PMOS(KP=0.00007986, Vto=-0.9, Gamma=0.656924, Phi=0.5, Is=9.5876e-24, level=12 )
