Version 4
SHEET 1 2568 1156
WIRE -464 -32 -544 -32
WIRE -400 -32 -464 -32
WIRE -352 -32 -400 -32
WIRE -224 -32 -352 -32
WIRE -96 -32 -224 -32
WIRE 48 -32 -96 -32
WIRE 208 -32 48 -32
WIRE 224 -32 208 -32
WIRE 608 -32 224 -32
WIRE 224 32 224 -32
WIRE -464 128 -464 -32
WIRE 224 144 224 112
WIRE -400 176 -400 -32
WIRE -400 176 -464 176
WIRE -512 208 -640 208
WIRE -544 256 -544 -32
WIRE -512 256 -544 256
WIRE -352 256 -352 -32
WIRE -352 256 -400 256
WIRE -464 288 -464 224
WIRE -464 288 -544 288
WIRE -384 288 -464 288
WIRE -96 288 -96 -32
WIRE -96 288 -176 288
WIRE -16 288 -96 288
WIRE -544 320 -544 288
WIRE -384 320 -384 288
WIRE -176 320 -176 288
WIRE -16 320 -16 288
WIRE -512 368 -512 256
WIRE -512 368 -544 368
WIRE -400 368 -400 256
WIRE -384 368 -400 368
WIRE -224 368 -224 -32
WIRE -176 368 -224 368
WIRE 48 368 48 -32
WIRE 48 368 -16 368
WIRE -592 400 -672 400
WIRE -288 400 -336 400
WIRE -96 400 -128 400
WIRE -64 400 -96 400
WIRE 1024 416 1024 224
WIRE -176 448 -176 416
WIRE -96 448 -96 400
WIRE -96 448 -176 448
WIRE 944 464 880 464
WIRE 1104 464 1040 464
WIRE -384 496 -384 416
WIRE -320 496 -384 496
WIRE -288 512 -288 400
WIRE -16 512 -16 416
WIRE -16 512 -288 512
WIRE -384 528 -384 496
WIRE -176 528 -176 448
WIRE 608 544 608 -32
WIRE 992 544 992 464
WIRE 992 544 608 544
WIRE 1104 544 1104 464
WIRE 1328 544 1104 544
WIRE -16 560 -16 512
WIRE 352 560 -16 560
WIRE -384 576 -464 576
WIRE -112 576 -176 576
WIRE 1056 576 992 576
WIRE -320 608 -320 496
WIRE -320 608 -336 608
WIRE -224 608 -320 608
WIRE 352 608 352 560
WIRE 880 608 880 464
WIRE 880 608 352 608
WIRE 1056 608 1056 576
WIRE -464 640 -464 576
WIRE -384 640 -384 624
WIRE -384 640 -464 640
WIRE -176 640 -176 624
WIRE -112 640 -112 576
WIRE -112 640 -176 640
WIRE 880 640 880 608
WIRE 944 640 880 640
WIRE 992 640 992 576
WIRE 1104 640 1104 544
WIRE 1104 640 1040 640
WIRE -176 656 -176 640
WIRE -384 672 -384 640
WIRE -544 688 -544 416
WIRE -448 688 -544 688
WIRE 1120 688 1024 688
WIRE -544 720 -544 688
WIRE -16 720 -16 560
WIRE 1120 720 1120 688
WIRE -544 768 -608 768
WIRE 64 768 -16 768
WIRE -448 800 -448 688
WIRE -448 800 -496 800
WIRE -64 800 -448 800
WIRE -608 832 -608 768
WIRE -544 832 -544 816
WIRE -544 832 -608 832
WIRE -16 832 -16 816
WIRE 64 832 64 768
WIRE 64 832 -16 832
WIRE -544 864 -544 832
WIRE -16 864 -16 832
FLAG 224 144 0
FLAG -16 864 0
FLAG -544 864 0
FLAG -384 672 0
FLAG -176 656 0
FLAG 1056 608 0
FLAG -640 208 pbias
FLAG -672 400 vref
FLAG 208 -32 vdd
FLAG 1120 720 bj
FLAG 1024 224 bjn
FLAG 1328 544 vsum
SYMBOL nmos4 -496 720 M0
SYMATTR InstName M1
SYMATTR Value2 l=500n w=2500n
SYMBOL nmos4 -336 528 M0
SYMATTR InstName M2
SYMATTR Value2 l=500n w=2500n
SYMBOL nmos4 -224 528 R0
SYMATTR InstName M3
SYMATTR Value2 l=500n w=2000n
SYMBOL nmos4 -64 720 R0
SYMATTR InstName M4
SYMATTR Value2 l=300n w=2400n
SYMBOL pmos4 -592 320 R0
SYMATTR InstName M5
SYMATTR Value2 l=400n w=800n
SYMBOL pmos4 -336 320 M0
SYMATTR InstName M6
SYMATTR Value2 l=400n w=800n
SYMBOL pmos4 -512 128 R0
SYMATTR InstName M7
SYMATTR Value2 l=200n w=3000n
SYMBOL pmos4 -128 320 M0
SYMATTR InstName M8
SYMATTR Value2 l=500n w=2000n
SYMBOL pmos4 -64 320 R0
SYMATTR InstName M9
SYMATTR Value2 l=300n w=2400n
SYMBOL voltage 224 16 R0
WINDOW 123 0 0 Left 0
WINDOW 39 0 0 Left 0
SYMATTR InstName Vdd1
SYMATTR Value 1.8
SYMBOL pmos4 944 416 M90
SYMATTR InstName M20
SYMATTR Value2 l=400n w=2500n
SYMBOL nmos4 944 688 R270
SYMATTR InstName M21
SYMATTR Value2 l=400n w=2500n
TEXT -24 984 Left 2 !.model NMOS nmos(level=12 phi=0.6 VTO=0.53 kp=0.00024 Gamma=0.8926 Is=4.43e-14, COX=10.4m, CJ=0.8m, CJSW=0.034n, CGDO=0.1n, CGSO=0.1n)
TEXT -24 1024 Left 2 !.model PMOS pmos(level=12 phi=0.3 VTO=-1.08 kp=5.986e-5 Gamma=0.735 Is=1.26e-21, COX=10.4m, CJ=1.05m, CJSW=0.047n, CGDO=0.1n, CGSO=0.1n)
TEXT 320 408 Left 2 !.tran 0 20m 0 0.02
TEXT 320 440 Left 2 !;dc V3 0 1.5 0.02
TEXT 320 376 Left 2 !;ac dec 100 10 3200k
